UV_Watch_1
*SPICE Netlist generated by Advanced Sim server on 4/4/2018 2:43:23 PM

*Schematic Netlist:

.SAVE 0


*Selected Circuit Analyses:
.TRAN 2E-8 5E-6 0 2E-8
.OP

.END
